<?xml version="1.0" encoding="UTF-8"?>

<!-- generated on 2022-09-21 15:24:43 by Eclipse SUMO netedit Version 1.14.1
<configuration xmlns:xsi="http://www.w3.org/2001/XMLSchema-instance" xsi:noNamespaceSchemaLocation="http://sumo.dlr.de/xsd/netconvertConfiguration.xsd">

    <input>
        <sumo-net-file value="D:\sumo\sumo-scenarios-main\bologna\clean-exp\clean.net.xml"/>
    </input>

    <output>
        <output-file value="D:\sumo\sumo-scenarios-main\bologna\clean-exp\clean.net.xml"/>
    </output>

    <processing>
        <geometry.min-radius.fix.railways value="false"/>
        <geometry.max-grade.fix value="false"/>
        <offset.disable-normalization value="true"/>
        <lefthand value="false"/>
    </processing>

    <tls_building>
        <tls.ignore-internal-junction-jam value="true"/>
    </tls_building>

    <junctions>
        <no-internal-links value="true"/>
        <no-turnarounds value="true"/>
        <junctions.corner-detail value="5"/>
        <junctions.limit-turn-speed value="5.5"/>
        <rectangular-lane-cut value="false"/>
        <check-lane-foes.all value="true"/>
    </junctions>

    <pedestrian>
        <walkingareas value="false"/>
    </pedestrian>

</configuration>
-->

<net version="1.9" junctionCornerDetail="5" limitTurnSpeed="5.50" checkLaneFoesAll="1" tlsIgnoreInternalJunctionJam="1" xmlns:xsi="http://www.w3.org/2001/XMLSchema-instance" xsi:noNamespaceSchemaLocation="http://sumo.dlr.de/xsd/net_file.xsd">

    <location netOffset="-683195.58,-4928877.56" convBoundary="0.00,0.00,2164.41,1916.16" origBoundary="-346.830000,0.000000,1817.580000,2148.550000" projParameter="+proj=utm +zone=32 +ellps=WGS84 +datum=WGS84 +units=m +no_defs"/>

    <edge id="a1" from="a1b" to="a1" priority="-1" spreadType="center">
        <lane id="a1_0" index="0" speed="13.89" length="15.02" shape="1839.46,842.77 1839.64,842.85"/>
        <lane id="a1_1" index="1" speed="13.89" length="15.02" shape="1838.21,845.72 1838.39,845.80"/>
    </edge>
    <edge id="a10" from="a7" to="a6" priority="-1" shape="739.21,115.94 728.27,119.44 673.52,136.88 654.89,137.57 635.08,134.69">
        <lane id="a10_0" index="0" speed="13.89" length="111.85" shape="734.32,119.18 728.76,120.96 673.80,138.47 654.80,139.17 642.83,137.43"/>
    </edge>
    <edge id="a103" from="a19" to="a12" priority="-1">
        <lane id="a103_0" index="0" speed="13.89" length="153.42" shape="723.92,365.16 669.83,238.33"/>
        <lane id="a103_1" index="1" speed="13.89" length="153.42" shape="726.86,363.91 672.77,237.07"/>
    </edge>
    <edge id="a104" from="a11" to="a12" priority="-1" spreadType="center" shape="653.83,180.13 670.83,220.88">
        <lane id="a104_0" index="0" speed="13.89" length="67.50" shape="655.31,179.51 669.87,214.43"/>
        <lane id="a104_1" index="1" speed="13.89" length="67.50" shape="652.35,180.75 666.92,215.67"/>
    </edge>
    <edge id="a109[0]" from="a70" to="a71" priority="-1">
        <lane id="a109[0]_0" index="0" speed="13.89" length="31.65" shape="1634.52,610.67 1659.12,607.43"/>
    </edge>
    <edge id="a109[1][0]+20003" from="a71" to="a72" priority="-1">
        <lane id="a109[1][0]+20003_0" index="0" speed="13.89" length="34.86" shape="1666.67,603.27 1693.36,600.14"/>
        <lane id="a109[1][0]+20003_1" index="1" speed="13.89" length="34.86" shape="1667.04,606.45 1693.73,603.32"/>
    </edge>
    <edge id="a109[1][1]" from="a72" to="a73" priority="-1">
        <lane id="a109[1][1]_0" index="0" speed="13.89" length="35.16" shape="1701.68,602.40 1726.61,599.59"/>
    </edge>
    <edge id="a11" from="a8" to="a9" priority="-1" spreadType="center" shape="913.08,801.50 929.02,840.38">
        <lane id="a11_0" index="0" speed="13.89" length="59.02" shape="917.19,803.10 930.06,834.48"/>
        <lane id="a11_1" index="1" speed="13.89" length="59.02" shape="914.23,804.31 927.10,835.70"/>
        <lane id="a11_2" index="2" speed="13.89" length="59.02" shape="911.27,805.53 924.14,836.92"/>
    </edge>
    <edge id="a110" from="a73" to="a70" priority="-1">
        <lane id="a110_0" index="0" speed="13.89" length="101.67" shape="1727.00,602.81 1634.94,613.88"/>
    </edge>
    <edge id="a113" from="a27" to="a34" priority="-1" shape="1905.89,566.13 1928.52,474.63">
        <lane id="a113_0" index="0" speed="13.89" length="106.15" shape="1899.25,559.65 1918.54,481.65"/>
        <lane id="a113_1" index="1" speed="13.89" length="106.15" shape="1902.36,560.42 1921.65,482.40"/>
        <lane id="a113_2" index="2" speed="13.89" length="106.15" shape="1905.46,561.19 1924.77,483.14"/>
    </edge>
    <edge id="a115" from="a27" to="a73" priority="-1">
        <lane id="a115_0" index="0" speed="13.89" length="190.31" shape="1889.57,575.82 1742.22,600.55"/>
    </edge>
    <edge id="a116" from="a73" to="a37" priority="-1">
        <lane id="a116_0" index="0" speed="13.89" length="87.85" shape="1741.66,597.35 1815.20,584.60"/>
    </edge>
    <edge id="a117" from="a51" to="a34" priority="-1">
        <lane id="a117_0" index="0" speed="13.89" length="146.67" shape="1792.69,432.65 1916.10,468.58"/>
    </edge>
    <edge id="a118" from="a34" to="a51" priority="-1">
        <lane id="a118_0" index="0" speed="13.89" length="146.67" shape="1915.21,471.65 1791.80,435.72"/>
    </edge>
    <edge id="a119" from="a51" to="a73" priority="-1">
        <lane id="a119_0" index="0" speed="13.89" length="176.33" shape="1784.77,439.54 1737.11,592.16"/>
    </edge>
    <edge id="a120" from="a73" to="a51" priority="-1">
        <lane id="a120_0" index="0" speed="13.89" length="176.33" shape="1734.06,591.20 1781.72,438.59"/>
    </edge>
    <edge id="a122" from="a79" to="a0" priority="-1" spreadType="center" shape="1542.21,826.50 1636.64,822.19 1704.21,817.69 1712.14,817.25 1754.33,816.25">
        <lane id="a122_0" index="0" speed="13.89" length="232.39" shape="1542.06,823.30 1636.46,818.99 1704.00,814.50 1712.01,814.05 1753.78,813.06"/>
        <lane id="a122_1" index="1" speed="13.89" length="232.39" shape="1542.21,826.50 1636.64,822.19 1704.21,817.69 1712.14,817.25 1753.85,816.26"/>
        <lane id="a122_2" index="2" speed="13.89" length="232.39" shape="1542.36,829.70 1636.82,825.39 1704.42,820.88 1712.27,820.45 1753.93,819.46"/>
    </edge>
    <edge id="a124" from="a204c" to="a78" priority="-2">
        <lane id="a124_0" index="0" speed="13.89" length="50.68" shape="1800.56,1055.66 1784.09,1076.08"/>
        <lane id="a124_1" index="1" speed="13.89" length="50.68" shape="1798.07,1053.65 1781.60,1074.07"/>
    </edge>
    <edge id="a125" from="a44" to="a78" priority="-1" spreadType="center" shape="1813.29,1077.74 1810.19,1082.18 1796.43,1088.61 1781.13,1089.05">
        <lane id="a125_0" index="0" speed="13.89" length="50.85" shape="1807.57,1085.17 1796.81,1090.20 1795.01,1090.25"/>
        <lane id="a125_1" index="1" speed="13.89" length="50.85" shape="1804.66,1083.00 1796.05,1087.02 1794.92,1087.05"/>
    </edge>
    <edge id="a127" from="a56" to="a42" priority="-1" spreadType="center">
        <lane id="a127_0" index="0" speed="13.89" length="24.88" shape="813.37,582.83 807.71,568.21"/>
        <lane id="a127_1" index="1" speed="13.89" length="24.88" shape="816.35,581.68 810.69,567.05"/>
    </edge>
    <edge id="a13" from="a6" to="a11" priority="-1" spreadType="center" shape="638.39,142.07 647.33,164.13">
        <lane id="a13_0" index="0" speed="13.89" length="37.22" shape="638.67,142.75 647.33,164.13"/>
    </edge>
    <edge id="a131" from="a131-begin" to="a51" priority="-1" spreadType="center" shape="1865.21,105.50 1858.52,168.13 1854.83,182.25 1829.71,267.50 1788.52,422.57">
        <lane id="a131_0" index="0" speed="13.89" length="337.02" shape="1865.21,105.50 1858.52,168.13 1854.83,182.25 1829.71,267.50 1788.52,422.57"/>
    </edge>
    <edge id="a133" from="a133-begin" to="a26" priority="-1">
        <lane id="a133_0" index="0" speed="13.89" length="162.28" shape="2106.67,531.87 1954.51,571.23"/>
    </edge>
    <edge id="a134" from="a27" to="a26" priority="-1" shape="1920.23,576.94 1944.09,572.13">
        <lane id="a134_0" index="0" speed="13.89" length="32.82" shape="1924.92,574.36 1936.00,572.13"/>
    </edge>
    <edge id="a134b" from="a26" to="a133-begin" priority="-1">
        <lane id="a134b_0" index="0" speed="13.89" length="162.28" shape="1953.71,568.13 2105.87,528.77"/>
    </edge>
    <edge id="a14" from="a12" to="a6" priority="-1" spreadType="center" shape="663.33,217.19 632.08,143.25">
        <lane id="a14_0" index="0" speed="13.89" length="104.28" shape="663.33,217.19 632.86,145.10"/>
    </edge>
    <edge id="a15" from="a13" to="a12" priority="-1">
        <lane id="a15_0" index="0" speed="13.89" length="108.32" shape="770.38,242.92 679.80,230.47"/>
    </edge>
    <edge id="a153" from="a31" to="a63" priority="-1" spreadType="center" shape="1097.71,233.50 1155.14,421.75 1155.21,422.00 1217.39,611.07">
        <lane id="a153_0" index="0" speed="13.89" length="422.55" shape="1097.71,233.50 1155.14,421.75 1155.21,422.00 1217.39,611.07"/>
    </edge>
    <edge id="a159" from="a50" to="a32" priority="-1">
        <lane id="a159_0" index="0" speed="13.89" length="240.45" shape="1362.94,136.47 1146.75,207.70"/>
    </edge>
    <edge id="a16" from="a12" to="a13" priority="-1">
        <lane id="a16_0" index="0" speed="13.89" length="108.32" shape="680.24,227.30 770.81,239.75"/>
    </edge>
    <edge id="a160" from="a32" to="a50" priority="-1">
        <lane id="a160_0" index="0" speed="13.89" length="240.45" shape="1145.74,204.66 1361.94,133.43"/>
    </edge>
    <edge id="a161" from="a52" to="a79" priority="-1" spreadType="center" shape="1330.71,831.75 1383.27,831.75 1411.52,831.07 1523.21,827.25">
        <lane id="a161_0" index="0" speed="13.89" length="210.70" shape="1330.71,828.55 1383.23,828.55 1411.43,827.87 1523.10,824.05"/>
        <lane id="a161_1" index="1" speed="13.89" length="210.70" shape="1330.71,831.75 1383.27,831.75 1411.52,831.07 1523.21,827.25"/>
        <lane id="a161_2" index="2" speed="13.89" length="210.70" shape="1330.71,834.95 1383.31,834.95 1411.61,834.27 1523.32,830.45"/>
    </edge>
    <edge id="a165" from="a165-begin" to="a26" priority="-1" spreadType="center" shape="2111.02,672.44 1940.83,661.13 1934.58,658.00 1931.58,651.32 1936.08,617.00 1945.39,575.57">
        <lane id="a165_0" index="0" speed="13.89" length="267.49" shape="2111.02,672.44 1940.83,661.13 1934.58,658.00 1931.58,651.32 1936.08,617.00 1942.93,586.50"/>
    </edge>
    <edge id="a166" from="a26" to="a166-end" priority="-1" spreadType="center" shape="1948.83,576.32 1939.58,617.63 1935.58,651.13 1937.64,655.19 1943.58,657.82 2111.27,668.94">
        <lane id="a166_0" index="0" speed="13.89" length="260.50" shape="1946.38,587.27 1939.58,617.63 1935.58,651.13 1937.64,655.19 1943.58,657.82 2111.27,668.94"/>
    </edge>
    <edge id="a17" from="a15" to="a16" priority="-1" spreadType="center" shape="1139.46,816.82 1069.33,844.50 1047.71,849.32 1011.33,853.25">
        <lane id="a17_0" index="0" speed="13.89" length="151.33" shape="1140.05,818.31 1069.80,846.03 1047.97,850.90 1012.50,854.73"/>
        <lane id="a17_1" index="1" speed="13.89" length="151.33" shape="1138.87,815.33 1068.86,842.97 1047.45,847.74 1012.15,851.55"/>
    </edge>
    <edge id="a171" from="a62" to="a52" priority="-1" spreadType="center" shape="1313.64,642.88 1313.64,654.25 1322.39,823.94">
        <lane id="a171_0" index="0" speed="13.89" length="187.41" shape="1313.64,649.62 1313.64,654.25 1322.35,823.24"/>
    </edge>
    <edge id="a173" from="a68" to="a48" priority="-1" spreadType="center" shape="1558.71,613.88 1543.89,573.69 1519.89,512.82 1490.83,436.88 1485.96,424.57 1482.77,416.57 1456.14,352.25">
        <lane id="a173_0" index="0" speed="13.89" length="287.90" shape="1558.41,613.06 1543.89,573.69 1519.89,512.82 1490.83,436.88 1485.96,424.57 1482.77,416.57 1459.62,360.66"/>
    </edge>
    <edge id="a18" from="a17" to="a15" priority="-1" spreadType="center" shape="1165.08,843.82 1154.64,819.82">
        <lane id="a18_0" index="0" speed="13.89" length="41.01" shape="1163.61,844.46 1153.17,820.46"/>
        <lane id="a18_1" index="1" speed="13.89" length="41.01" shape="1166.55,843.18 1156.11,819.18"/>
    </edge>
    <edge id="a181" from="b39" to="a17" priority="-1" spreadType="center" shape="1193.21,906.32 1166.64,846.94">
        <lane id="a181_0" index="0" speed="13.89" length="81.03" shape="1191.75,906.97 1165.18,847.59"/>
        <lane id="a181_1" index="1" speed="13.89" length="81.03" shape="1194.67,905.67 1168.10,846.29"/>
    </edge>
    <edge id="a185" from="a70" to="a68" priority="-1">
        <lane id="a185_0" index="0" speed="13.89" length="73.55" shape="1623.53,615.14 1566.06,621.34"/>
    </edge>
    <edge id="a186" from="a68" to="a70" priority="-1">
        <lane id="a186_0" index="0" speed="13.89" length="73.55" shape="1565.71,618.16 1623.19,611.96"/>
    </edge>
    <edge id="a187" from="a63" to="a82" priority="-1">
        <lane id="a187_0" index="0" speed="13.89" length="97.04" shape="1216.34,626.55 1132.68,616.04"/>
    </edge>
    <edge id="a188" from="a82" to="a63" priority="-1">
        <lane id="a188_0" index="0" speed="13.89" length="97.04" shape="1133.08,612.86 1216.74,623.38"/>
    </edge>
    <edge id="a189[0]" from="a54" to="a84" priority="-1">
        <lane id="a189[0]_0" index="0" speed="13.89" length="14.09" shape="904.16,564.99 909.13,565.99"/>
    </edge>
    <edge id="a189[1][0]+20000" from="a84" to="a85" priority="-1">
        <lane id="a189[1][0]+20000_0" index="0" speed="13.89" length="37.14" shape="917.61,564.48 946.12,570.61"/>
        <lane id="a189[1][0]+20000_1" index="1" speed="13.89" length="37.14" shape="916.94,567.61 945.44,573.74"/>
    </edge>
    <edge id="a189[1][1]" from="a85" to="a82" priority="-1">
        <lane id="a189[1][1]_0" index="0" speed="13.89" length="179.72" shape="953.27,575.41 1121.12,611.02"/>
    </edge>
    <edge id="a19" from="a18" to="a19" priority="-1">
        <lane id="a19_0" index="0" speed="13.89" length="82.57" shape="806.94,378.25 738.14,371.08"/>
    </edge>
    <edge id="a190" from="a82" to="a54" priority="-1">
        <lane id="a190_0" index="0" speed="13.89" length="230.96" shape="1120.45,614.15 903.52,568.19"/>
    </edge>
    <edge id="a191" from="a82" to="a15" priority="-1">
        <lane id="a191_0" index="0" speed="13.89" length="195.90" shape="1127.42,621.30 1149.19,795.68"/>
    </edge>
    <edge id="a194" from="a79" to="a66" priority="-1" spreadType="center" shape="1533.64,814.50 1529.02,771.57 1504.52,640.82">
        <lane id="a194_0" index="0" speed="13.89" length="198.76" shape="1533.64,814.50 1529.02,771.57 1504.52,640.82"/>
    </edge>
    <edge id="a195" from="a195-begin" to="a50" priority="-1" spreadType="center" shape="1332.39,0.00 1334.64,12.69 1341.02,38.38 1344.71,50.50 1355.33,87.00 1367.52,122.75">
        <lane id="a195_0" index="0" speed="13.89" length="137.10" shape="1332.54,0.86 1334.64,12.69 1341.02,38.38 1344.71,50.50 1355.33,87.00 1367.52,122.75"/>
    </edge>
    <edge id="a197" from="a46" to="a70" priority="-1" spreadType="center" shape="1676.58,406.94 1671.33,427.82 1669.46,434.07 1663.89,458.38 1661.83,470.32 1654.89,489.00 1629.08,607.88">
        <lane id="a197_0" index="0" speed="13.89" length="220.93" shape="1676.58,406.94 1671.33,427.82 1669.46,434.07 1663.89,458.38 1661.83,470.32 1654.89,489.00 1629.63,605.36"/>
    </edge>
    <edge id="a1b" from="a0" to="a1b" priority="-1" spreadType="center" shape="1759.78,818.60 1837.30,840.90">
        <lane id="a1b_0" index="0" speed="13.89" length="73.60" shape="1765.95,818.71 1824.00,835.41"/>
        <lane id="a1b_1" index="1" speed="13.89" length="73.60" shape="1765.07,821.79 1823.12,838.49"/>
    </edge>
    <edge id="a2" from="a2" to="a3" priority="-1" spreadType="center" shape="1787.96,817.25 1835.90,825.69">
        <lane id="a2_0" index="0" speed="13.89" length="52.65" shape="1788.51,814.10 1827.60,820.98"/>
        <lane id="a2_1" index="1" speed="13.89" length="52.65" shape="1787.96,817.25 1827.04,824.13"/>
        <lane id="a2_2" index="2" speed="13.89" length="52.65" shape="1787.41,820.40 1826.49,827.28"/>
    </edge>
    <edge id="a20" from="a19" to="a18" priority="-1">
        <lane id="a20_0" index="0" speed="13.89" length="82.57" shape="738.47,367.90 807.28,375.07"/>
    </edge>
    <edge id="a200" from="a46" to="a49" priority="-1" spreadType="center" shape="1680.46,387.63 1698.27,316.69">
        <lane id="a200_0" index="0" speed="13.89" length="99.48" shape="1680.46,387.63 1700.67,307.14"/>
    </edge>
    <edge id="a20001+87[1][0]" from="a59" to="a60" priority="-1">
        <lane id="a20001+87[1][0]_0" index="0" speed="13.89" length="37.43" shape="1237.65,623.49 1266.66,628.53"/>
        <lane id="a20001+87[1][0]_1" index="1" speed="13.89" length="37.43" shape="1237.10,626.64 1266.11,631.68"/>
    </edge>
    <edge id="a20002+89[1][0]" from="a64" to="a65" priority="-1">
        <lane id="a20002+89[1][0]_0" index="0" speed="13.89" length="31.60" shape="1440.73,626.33 1464.27,624.42"/>
        <lane id="a20002+89[1][0]_1" index="1" speed="13.89" length="31.60" shape="1440.99,629.52 1464.53,627.61"/>
    </edge>
    <edge id="a201" from="a27" to="a1c" priority="-1" spreadType="center" shape="1910.89,595.69 1872.02,741.63 1855.21,808.94 1851.34,825.41">
        <lane id="a201_0" index="0" speed="13.89" length="265.70" shape="1913.98,596.51 1875.12,742.43 1858.32,809.69 1855.82,820.34"/>
        <lane id="a201_1" index="1" speed="13.89" length="265.70" shape="1910.89,595.69 1872.02,741.63 1855.21,808.94 1852.70,819.61"/>
        <lane id="a201_2" index="2" speed="13.89" length="265.70" shape="1907.80,594.87 1868.92,740.83 1852.10,808.19 1849.59,818.88"/>
    </edge>
    <edge id="a201c" from="a1c" to="a1" priority="-1" spreadType="center">
        <lane id="a201c_0" index="0" speed="13.89" length="22.47" shape="1852.68,832.99 1850.63,840.88"/>
        <lane id="a201c_1" index="1" speed="13.89" length="22.47" shape="1849.58,832.18 1847.54,840.08"/>
        <lane id="a201c_2" index="2" speed="13.89" length="22.47" shape="1846.49,831.38 1844.44,839.28"/>
    </edge>
    <edge id="a202" from="a3" to="a29" priority="-1" spreadType="center" shape="1835.90,825.69 1838.33,815.07 1844.77,790.82 1858.02,738.32 1876.46,663.50">
        <lane id="a202_0" index="0" speed="13.89" length="179.34" shape="1834.65,816.82 1835.22,814.30 1841.67,790.02 1854.92,737.55 1875.27,654.97"/>
        <lane id="a202_1" index="1" speed="13.89" length="179.34" shape="1837.77,817.54 1838.33,815.07 1844.77,790.82 1858.02,738.32 1878.37,655.73"/>
        <lane id="a202_2" index="2" speed="13.89" length="179.34" shape="1840.89,818.25 1841.44,815.84 1847.87,791.62 1861.12,739.09 1881.48,656.50"/>
    </edge>
    <edge id="a203[0]" from="a203-begin" to="a78" priority="-1" spreadType="center">
        <lane id="a203[0]_0" index="0" speed="13.89" length="425.09" shape="2112.59,1337.84 1789.84,1099.78"/>
        <lane id="a203[0]_1" index="1" speed="13.89" length="425.09" shape="2114.49,1335.26 1791.74,1097.21"/>
        <lane id="a203[0]_2" index="2" speed="13.89" length="425.09" shape="2116.39,1332.68 1793.64,1094.63"/>
    </edge>
    <edge id="a203[1]" from="a78" to="a1b" priority="-1" spreadType="center" shape="1772.39,1100.82 1774.14,1094.57 1774.02,1067.75 1820.89,887.69 1830.14,846.88">
        <lane id="a203[1]_0" index="0" speed="13.89" length="249.06" shape="1770.83,1070.33 1770.82,1067.35 1817.78,886.93 1826.53,848.32"/>
        <lane id="a203[1]_1" index="1" speed="13.89" length="249.06" shape="1774.04,1071.21 1774.02,1067.75 1820.89,887.69 1829.65,849.03"/>
        <lane id="a203[1]_2" index="2" speed="13.89" length="249.06" shape="1777.24,1072.09 1777.22,1068.15 1824.00,888.45 1832.77,849.73"/>
    </edge>
    <edge id="a203[1]b" from="a1b" to="a3" priority="-1" spreadType="center">
        <lane id="a203[1]b_0" index="0" speed="13.89" length="16.11" shape="1830.79,832.68 1830.84,832.49"/>
        <lane id="a203[1]b_1" index="1" speed="13.89" length="16.11" shape="1833.89,833.48 1833.94,833.29"/>
        <lane id="a203[1]b_2" index="2" speed="13.89" length="16.11" shape="1836.99,834.28 1837.04,834.09"/>
    </edge>
    <edge id="a204[1][0]" from="a43" to="a44" priority="-1" spreadType="center">
        <lane id="a204[1][0]_0" index="0" speed="13.89" length="15.63" shape="1816.63,1065.42 1816.80,1065.94"/>
        <lane id="a204[1][0]_1" index="1" speed="13.89" length="15.63" shape="1813.59,1066.41 1813.75,1066.92"/>
    </edge>
    <edge id="a204[1][1]" from="a44" to="a204-end" priority="-1" spreadType="center" shape="1815.96,1079.18 1816.25,1088.94 1821.46,1099.17 2164.41,1347.94">
        <lane id="a204[1][1]_0" index="0" speed="13.89" length="450.24" shape="1819.41,1087.49 1819.43,1088.13 1823.96,1097.03 2166.29,1345.35"/>
        <lane id="a204[1][1]_1" index="1" speed="13.89" length="450.24" shape="1816.21,1087.58 1816.25,1088.94 1821.46,1099.17 2164.41,1347.94"/>
        <lane id="a204[1][1]_2" index="2" speed="13.89" length="450.24" shape="1813.01,1087.68 1813.07,1089.75 1818.96,1101.31 2162.53,1350.53"/>
    </edge>
    <edge id="a204a[0]" from="a1" to="a204c" priority="-1" spreadType="center" shape="1845.96,847.69 1836.64,887.69 1803.52,1026.13 1802.77,1029.13 1802.02,1035.82 1804.21,1044.50">
        <lane id="a204a[0]_0" index="0" speed="13.89" length="201.70" shape="1847.85,853.66 1839.75,888.43 1806.63,1026.88 1805.93,1029.70 1805.26,1035.60 1805.72,1037.40"/>
        <lane id="a204a[0]_1" index="1" speed="13.89" length="201.70" shape="1844.74,852.93 1836.64,887.69 1803.52,1026.13 1802.77,1029.13 1802.02,1035.82 1802.62,1038.18"/>
        <lane id="a204a[0]_2" index="2" speed="13.89" length="201.70" shape="1841.62,852.21 1833.53,886.95 1800.41,1025.38 1799.61,1028.56 1798.78,1036.04 1799.51,1038.97"/>
    </edge>
    <edge id="a204b[0]" from="a204c" to="a43" priority="-1" spreadType="center">
        <lane id="a204b[0]_0" index="0" speed="13.89" length="17.83" shape="1812.22,1051.30 1812.32,1051.48"/>
        <lane id="a204b[0]_1" index="1" speed="13.89" length="17.83" shape="1809.43,1052.86 1809.53,1053.04"/>
        <lane id="a204b[0]_2" index="2" speed="13.89" length="17.83" shape="1806.63,1054.42 1806.73,1054.59"/>
    </edge>
    <edge id="a206" from="a35" to="a25" priority="-1" spreadType="center">
        <lane id="a206_0" index="0" speed="13.89" length="106.54" shape="893.24,115.45 985.88,92.55"/>
    </edge>
    <edge id="a209" from="a34" to="a209-end" priority="-1" spreadType="center" shape="1926.27,464.44 2022.21,80.38">
        <lane id="a209_0" index="0" speed="13.89" length="408.25" shape="1923.17,463.66 2019.28,78.90"/>
        <lane id="a209_1" index="1" speed="13.89" length="408.25" shape="1926.27,464.44 2022.39,79.67"/>
        <lane id="a209_2" index="2" speed="13.89" length="408.25" shape="1929.37,465.22 2025.49,80.45"/>
    </edge>
    <edge id="a210" from="a210-begin" to="a33" priority="-1" spreadType="center" shape="2038.77,85.07 2029.89,126.82 2026.58,143.25 2022.39,160.19 2016.58,190.82 1984.96,296.82 1948.96,437.94">
        <lane id="a210_0" index="0" speed="13.89" length="369.44" shape="2041.90,85.74 2033.02,127.47 2029.70,143.95 2025.52,160.87 2019.69,191.58 1988.04,297.67 1952.06,438.73"/>
        <lane id="a210_1" index="1" speed="13.89" length="369.44" shape="2038.77,85.07 2029.89,126.82 2026.58,143.25 2022.39,160.19 2016.58,190.82 1984.96,296.82 1948.96,437.94"/>
        <lane id="a210_2" index="2" speed="13.89" length="369.44" shape="2035.64,84.40 2026.76,126.17 2023.46,142.55 2019.26,159.51 2013.47,190.06 1981.88,295.97 1945.86,437.15"/>
    </edge>
    <edge id="a211" from="a7" to="a36" priority="-1" spreadType="center" shape="738.69,114.43 861.21,73.75">
        <lane id="a211_0" index="0" speed="13.89" length="144.46" shape="743.95,112.68 870.82,70.56"/>
    </edge>
    <edge id="a212" from="a212-begin" to="a7" priority="-1" spreadType="center" shape="871.77,74.13 739.69,117.47">
        <lane id="a212_0" index="0" speed="13.89" length="139.22" shape="871.77,74.13 744.96,115.74"/>
    </edge>
    <edge id="a218" from="a86" to="a30" priority="-1" spreadType="center">
        <lane id="a218_0" index="0" speed="13.89" length="126.69" shape="911.20,379.81 916.97,267.47"/>
    </edge>
    <edge id="a219" from="a18" to="a86" priority="-1">
        <lane id="a219_0" index="0" speed="13.89" length="98.55" shape="818.47,376.21 905.26,384.91"/>
    </edge>
    <edge id="a21a" from="a20c" to="a21m" priority="-1" spreadType="center" shape="793.89,516.94 781.33,496.50">
        <lane id="a21a_0" index="0" speed="13.89" length="32.39" shape="793.89,516.94 783.77,500.47"/>
    </edge>
    <edge id="a21b" from="a21m" to="a19" priority="-1" spreadType="center" shape="781.33,496.50 776.96,486.19 730.14,382.32">
        <lane id="a21b_0" index="0" speed="13.89" length="139.27" shape="780.07,493.52 776.96,486.19 728.66,379.04"/>
    </edge>
    <edge id="a22" from="a19" to="a21" priority="-1" spreadType="center">
        <lane id="a22_0" index="0" speed="13.89" length="89.50" shape="734.18,376.56 765.71,446.71"/>
    </edge>
    <edge id="a220" from="a86" to="a18" priority="-1">
        <lane id="a220_0" index="0" speed="13.89" length="98.55" shape="904.94,388.10 818.15,379.40"/>
    </edge>
    <edge id="a220b" from="a220-begin" to="a86" priority="-1" spreadType="center" shape="963.83,413.94 947.52,406.07 926.64,394.19 910.63,388.39">
        <lane id="a220b_0" index="0" speed="13.89" length="59.57" shape="963.83,413.94 947.52,406.07 926.64,394.19 915.64,390.20"/>
    </edge>
    <edge id="a222" from="a87" to="a222-end" priority="-1" spreadType="center" shape="1330.14,860.44 1326.21,840.57">
        <lane id="a222_0" index="0" speed="13.89" length="36.35" shape="1330.14,860.44 1326.21,840.57"/>
    </edge>
    <edge id="a224[0]" from="a224-begin" to="a87" priority="-1" spreadType="center">
        <lane id="a224[0]_0" index="0" speed="13.89" length="326.16" shape="1408.64,1193.50 1337.84,899.03"/>
    </edge>
    <edge id="a224[1]" from="a87" to="b39" priority="-1" spreadType="center" shape="1332.39,876.38 1332.27,875.94 1331.52,873.25 1328.52,870.63 1325.39,869.75 1320.27,870.63 1204.52,917.44">
        <lane id="a224[1]_0" index="0" speed="13.89" length="145.19" shape="1327.28,870.28 1325.39,869.75 1320.27,870.63 1206.41,916.68"/>
    </edge>
    <edge id="a24" from="a12" to="a19" priority="-1">
        <lane id="a24_0" index="0" speed="13.89" length="153.42" shape="675.72,235.82 729.80,362.65"/>
    </edge>
    <edge id="a25" from="a25-begin" to="a23" priority="-1" shape="526.64,668.63 797.27,705.07 835.64,710.63 859.52,716.19">
        <lane id="a25_0" index="0" speed="13.89" length="346.10" shape="526.81,667.04 797.49,703.49 835.94,709.06 859.88,714.63"/>
    </edge>
    <edge id="a26" from="a23" to="a25-begin" priority="-1" shape="859.52,716.19 835.64,710.63 797.27,705.07 526.64,668.63">
        <lane id="a26_0" index="0" speed="13.89" length="346.10" shape="859.16,717.75 835.34,712.20 797.05,706.65 526.38,670.21"/>
    </edge>
    <edge id="a28" from="a24" to="a28-end" priority="-1" spreadType="center" shape="1033.39,47.94 1026.02,28.32 987.14,38.57">
        <lane id="a28_0" index="0" speed="13.89" length="71.09" shape="1033.17,47.35 1026.02,28.32 987.14,38.57"/>
    </edge>
    <edge id="a3" from="a0" to="a2" priority="-1" spreadType="center" shape="1755.56,816.13 1762.46,812.50 1780.14,815.88">
        <lane id="a3_0" index="0" speed="13.89" length="23.87" shape="1764.04,811.17 1780.44,814.31"/>
        <lane id="a3_1" index="1" speed="13.89" length="23.87" shape="1765.64,814.74 1779.84,817.45"/>
    </edge>
    <edge id="a30" from="a25" to="a30-end" priority="-1" spreadType="center">
        <lane id="a30_0" index="0" speed="13.89" length="44.21" shape="989.77,85.75 978.77,48.82"/>
    </edge>
    <edge id="a31" from="a26" to="a27" priority="-1" shape="1949.16,570.96 1931.96,574.63">
        <lane id="a31_0" index="0" speed="13.89" length="32.94" shape="1938.00,581.52 1926.84,583.90"/>
        <lane id="a31_1" index="1" speed="13.89" length="32.94" shape="1937.34,578.39 1926.21,580.77"/>
        <lane id="a31_2" index="2" speed="13.89" length="32.94" shape="1936.67,575.26 1925.58,577.63"/>
    </edge>
    <edge id="a32" from="a25" to="a28" priority="-1" spreadType="center">
        <lane id="a32_0" index="0" speed="13.89" length="157.41" shape="993.24,96.31 1042.37,232.45"/>
    </edge>
    <edge id="a33" from="a13" to="a7" priority="-1" spreadType="center">
        <lane id="a33_0" index="0" speed="13.89" length="132.13" shape="775.36,234.42 741.32,122.85"/>
    </edge>
    <edge id="a34" from="a29" to="a27" priority="-1" spreadType="center" shape="1880.39,647.69 1897.83,580.25">
        <lane id="a34_0" index="0" speed="13.89" length="96.28" shape="1877.29,646.89 1891.84,590.62"/>
        <lane id="a34_1" index="1" speed="13.89" length="96.28" shape="1880.39,647.69 1894.94,591.44"/>
        <lane id="a34_2" index="2" speed="13.89" length="96.28" shape="1883.49,648.49 1898.03,592.26"/>
    </edge>
    <edge id="a35" from="a28" to="a30" priority="-1" shape="1044.83,239.25 1032.89,242.69 991.64,256.32 975.83,258.25 937.46,259.63 922.21,259.57">
        <lane id="a35_0" index="0" speed="13.89" length="130.40" shape="1039.76,242.38 1033.36,244.22 991.99,257.89 975.96,259.85 937.49,261.23 923.13,261.17"/>
    </edge>
    <edge id="a36" from="a30" to="a28" priority="-1" shape="922.21,259.57 937.46,259.63 975.83,258.25 991.64,256.32 1032.89,242.69 1044.83,239.25">
        <lane id="a36_0" index="0" speed="13.89" length="130.40" shape="923.14,257.97 937.43,258.03 975.70,256.65 991.29,254.75 1032.42,241.16 1038.88,239.30"/>
    </edge>
    <edge id="a37" from="a13" to="a30" priority="-1">
        <lane id="a37_0" index="0" speed="13.89" length="140.75" shape="784.94,241.64 912.13,258.27"/>
    </edge>
    <edge id="a38" from="a30" to="a13" priority="-1">