<?xml version="1.0" encoding="UTF-8"?>

<!-- generated on 2022-10-25 11:10:08 by Eclipse SUMO netedit Version 1.14.1
<configuration xmlns:xsi="http://www.w3.org/2001/XMLSchema-instance" xsi:noNamespaceSchemaLocation="http://sumo.dlr.de/xsd/netconvertConfiguration.xsd">

    <input>
        <sumo-net-file value="D:\GitProjects\tsim\Experiment\traci_tls\cross.net.xml"/>
    </input>

    <output>
        <output-file value="D:\GitProjects\tsim\Experiment\traci_tls\cross.net.xml"/>
    </output>

    <processing>
        <geometry.min-radius.fix.railways value="false"/>
        <geometry.max-grade.fix value="false"/>
        <offset.disable-normalization value="true"/>
        <lefthand value="false"/>
    </processing>

    <junctions>
        <no-internal-links value="true"/>
        <no-turnarounds value="true"/>
        <junctions.corner-detail value="0"/>
        <junctions.limit-turn-speed value="-1"/>
        <rectangular-lane-cut value="false"/>
    </junctions>

    <pedestrian>
        <walkingareas value="false"/>
    </pedestrian>

</configuration>
-->

<net version="1.9" xmlns:xsi="http://www.w3.org/2001/XMLSchema-instance" xsi:noNamespaceSchemaLocation="http://sumo.dlr.de/xsd/net_file.xsd">

    <location netOffset="510.00,510.00" convBoundary="0.00,0.00,1020.00,1020.00" origBoundary="-510.00,-510.00,510.00,510.00" projParameter="!"/>

    <edge id="1i" from="1" to="0" priority="78">
        <lane id="1i_0" index="0" speed="19.44" length="500.00" shape="10.00,508.40 502.80,508.40"/>
    </edge>
    <edge id="1o" from="0" to="1" priority="46">
        <lane id="1o_0" index="0" speed="11.11" length="500.00" shape="502.80,511.60 10.00,511.60"/>
    </edge>
    <edge id="2i" from="2" to="0" priority="78">
        <lane id="2i_0" index="0" speed="19.44" length="500.00" shape="1010.00,511.60 517.20,511.60"/>
    </edge>
    <edge id="2o" from="0" to="2" priority="46">
        <lane id="2o_0" index="0" speed="11.11" length="500.00" shape="517.20,508.40 1010.00,508.40"/>
    </edge>
    <edge id="3i" from="3" to="0" priority="78">
        <lane id="3i_0" index="0" speed="19.44" length="500.00" shape="511.60,10.00 511.60,502.80"/>
    </edge>
    <edge id="3o" from="0" to="3" priority="46">
        <lane id="3o_0" index="0" speed="11.11" length="500.00" shape="508.40,502.80 508.40,10.00"/>
    </edge>
    <edge id="4i" from="4" to="0" priority="78">
        <lane id="4i_0" index="0" speed="19.44" length="500.00" shape="508.40,1010.00 508.40,517.20"/>
    </edge>
    <edge id="4o" from="0" to="4" priority="46">
        <lane id="4o_0" index="0" speed="11.11" length="500.00" shape="511.60,517.20 511.60,1010.00"/>
    </edge>
    <edge id="51i" from="1" to="51" priority="78">
        <lane id="51i_0" index="0" speed="19.44" length="10.00" shape="10.00,511.60 0.00,511.60"/>
    </edge>
    <edge id="51o" from="51" to="1" priority="46">
        <lane id="51o_0" index="0" speed="11.11" length="10.00" shape="0.00,508.40 10.00,508.40"/>
    </edge>
    <edge id="52i" from="2" to="52" priority="78">
        <lane id="52i_0" index="0" speed="19.44" length="10.00" shape="1010.00,508.40 1020.00,508.40"/>
    </edge>
    <edge id="52o" from="52" to="2" priority="46">
        <lane id="52o_0" index="0" speed="11.11" length="10.00" shape="1020.00,511.60 1010.00,511.60"/>
    </edge>
    <edge id="53i" from="3" to="53" priority="78">
        <lane id="53i_0" index="0" speed="19.44" length="10.00" shape="508.40,10.00 508.40,0.00"/>
    </edge>
    <edge id="53o" from="53" to="3" priority="46">
        <lane id="53o_0" index="0" speed="11.11" length="10.00" shape="511.60,0.00 511.60,10.00"/>
    </edge>
    <edge id="54i" from="4" to="54" priority="78">
        <lane id="54i_0" index="0" speed="19.44" length="10.00" shape="511.60,1010.00 511.60,1020.00"/>
    </edge>
    <edge id="54o" from="54" to="4" priority="46">
        <lane id="54o_0" index="0" speed="11.11" length="10.00" shape="508.40,1020.00 508.40,1010.00"/>
    </edge>

    <tlLogic id="0" type="static" programID="0" offset="0">
        <phase duration="31" state="GrGr"/>
        <phase duration="6"  state="yryr"/>
        <phase duration="31" state="rGrG"/>
        <phase duration="6"  state="ryry"/>
    </tlLogic>

    <junction id="0" type="traffic_light" x="510.00" y="510.00" incLanes="4i_0 2i_0 3i_0 1i_0" intLanes="" shape="506.80,517.20 513.20,517.20 517.20,513.20 517.20,506.80 513.20,502.80 506.80,502.80 502.80,506.80 502.80,513.20">
        <request index="0" response="0000" foes="1010"/>
        <request index="1" response="0101" foes="0101"/>
        <request index="2" response="0000" foes="1010"/>
        <request index="3" response="0101" foes="0101"/>
    </junction>
    <junction id="1" type="priority" x="10.00" y="510.00" incLanes="1o_0 51o_0" intLanes="" shape="10.00,513.20 10.00,506.80 10.00,513.20">
        <request index="0" response="0000" foes="1000"/>
        <request index="1" response="0100" foes="0100"/>
        <request index="2" response="0000" foes="0010"/>
        <request index="3" response="0001" foes="0001"/>
    </junction>
    <junction id="2" type="priority" x="1010.00" y="510.00" incLanes="52o_0 2o_0" intLanes="" shape="1010.00,513.20 1010.00,506.80 1010.00,513.20">
        <request index="0" response="0000" foes="1000"/>
        <request index="1" response="0100" foes="0100"/>
        <request index="2" response="0000" foes="0010"/>
        <request index="3" response="0001" foes="0001"/>
    </junction>
    <junction id="3" type="priority" x="510.00" y="10.00" incLanes="3o_0 53o_0" intLanes="" shape="506.80,10.00 513.20,10.00 506.80,10.00">
        <request index="0" response="0000" foes="1000"/>
        <request index="1" response="0100" foes="0100"/>
        <request index="2" response="0000" foes="0010"/>
        <request index="3" response="0001" foes="0001"/>
    </junction>
    <junction id="4" type="priority" x="510.00" y="1010.00" incLanes="54o_0 4o_0" intLanes="" shape="506.80,1010.00 513.20,1010.00 506.80,1010.00">
        <request index="0" response="0000" foes="1000"/>
        <request index="1" response="0100" foes="0100"/>
        <request index="2" response="0000" foes="0010"/>
        <request index="3" response="0001" foes="0001"/>
    </junction>
    <junction id="51" type="priority" x="0.00" y="510.00" incLanes="51i_0" intLanes="" shape="0.00,510.00 0.00,513.20 0.00,510.00">
        <request index="0" response="0" foes="0"/>
    </junction>
    <junction id="52" type="priority" x="1020.00" y="510.00" incLanes="52i_0" intLanes="" shape="1020.00,510.00 1020.00,506.80 1020.00,510.00">
        <request index="0" response="0" foes="0"/>
    </junction>
    <junction id="53" type="priority" x="510.00" y="0.00" incLanes="53i_0" intLanes="" shape="510.00,0.00 506.80,0.00 510.00,0.00">
        <request index="0" response="0" foes="0"/>
    </junction>
    <junction id="54" type="priority" x="510.00" y="1020.00" incLanes="54i_0" intLanes="" shape="510.00,1020.00 513.20,1020.00 510.00,1020.00">
        <request index="0" response="0" foes="0"/>
    </junction>

    <connection from="1i" to="2o" fromLane="0" toLane="0" tl="0" linkIndex="3" dir="s" state="o"/>
    <connection from="1o" to="51i" fromLane="0" toLane="0" dir="s" state="M"/>
    <connection from="1o" to="1i" fromLane="0" toLane="0" dir="t" state="m"/>
    <connection from="2i" to="1o" fromLane="0" toLane="0" tl="0" linkIndex="1" dir="s" state="o"/>
    <connection from="2o" to="52i" fromLane="0" toLane="0" dir="s" state="M"/>
    <connection from="2o" to="2i" fromLane="0" toLane="0" dir="t" state="m"/>
    <connection from="3i" to="4o" fromLane="0" toLane="0" tl="0" linkIndex="2" dir="s" state="O"/>
    <connection from="3o" to="53i" fromLane="0" toLane="0" dir="s" state="M"/>
    <connection from="3o" to="3i" fromLane="0" toLane="0" dir="t" state="m"/>
    <connection from="4i" to="3o" fromLane="0" toLane="0" tl="0" linkIndex="0" dir="s" state="O"/>
    <connection from="4o" to="54i" fromLane="0" toLane="0" dir="s" state="M"/>
    <connection from="4o" to="4i" fromLane="0" toLane="0" dir="t" state="m"/>
    <connection from="51i" to="51o" fromLane="0" toLane="0" dir="t" state="M"/>
    <connection from="51o" to="1i" fromLane="0" toLane="0" dir="s" state="M"/>
    <connection from="51o" to="51i" fromLane="0" toLane="0" dir="t" state="m"/>
    <connection from="52i" to="52o" fromLane="0" toLane="0" dir="t" state="M"/>
    <connection from="52o" to="2i" fromLane="0" toLane="0" dir="s" state="M"/>
    <connection from="52o" to="52i" fromLane="0" toLane="0" dir="t" state="m"/>
    <connection from="53i" to="53o" fromLane="0" toLane="0" dir="t" state="M"/>
    <connection from="53o" to="3i" fromLane="0" toLane="0" dir="s" state="M"/>
    <connection from="53o" to="53i" fromLane="0" toLane="0" dir="t" state="m"/>
    <connection from="54i" to="54o" fromLane="0" toLane="0" dir="t" state="M"/>
    <connection from="54o" to="4i" fromLane="0" toLane="0" dir="s" state="M"/>
    <connection from="54o" to="54i" fromLane="0" toLane="0" dir="t" state="m"/>

</net>
